src/examples/case14_twoarea/two_area_02pulim_2/results/res_branch_2.csv
branch,from_bus,to_bus,X,B,G,Bfr,Bto,p_from,p_to,q_from,q_to,p_loss,q_loss,s_from,s_to,rate_a,ang_deg,angmin,angmax
7,4,5,0.07018333333333335,-13.750861129582134,2.615635185180549,-3.0834042497958637e-21,6.528619957844227e-15,-0.19910680309552387,0.19970659465904494,-0.00767635032677165,0.010829868196662063,0.0005997915635210793,0.003153517869890413,0.19925472489569485,0.20000002498867134,0.2,-0.8961617170147433,-60.0001403060998,60.0001403060998
4,2,4,0.2938666666666667,-3.2748499997261438,0.6475778135801388,0.028333333333268575,0.028333333333304483,0.2631462050034334,-0.2587269579657465,-0.01952276968711773,-0.008977340822025202,0.004419247037686869,-0.02850011050914293,0.2638694066085821,0.25888265957078693,0.2,4.920916922237906,-60.0001403060998,60.0001403060998
2,1,5,0.37173333333333336,-2.6344464415530924,0.38290658510701486,0.04099999999993718,0.04099999999985306,0.2204114049118408,-0.21753485357537075,-0.00964193848601183,-0.0450992401425631,0.0028765513364700512,-0.05474117862857493,0.22062219832324098,0.22216064903914592,0.2,5.0758675033731215,-60.0001403060998,60.0001403060998
3,2,3,0.32995,-2.9705137433791564,0.4230472520120755,0.0364999999999303,0.03649999999992894,0.24968826343646403,-0.24646496733978432,-0.02100746230713717,-0.021993203349409317,0.0032232960966797064,-0.04300066565654649,0.2505704339512203,0.24744429902377912,0.2,5.221080363150047,-60.0001403060998,60.0001403060998
5,2,5,0.28980000000000006,-3.3223527358981553,0.6528916090731463,0.028833333333249167,0.02883333333329633,0.2182939773915516,-0.2153151867689751,-0.025351778309148636,-0.0114269942232182,0.0029787906225764993,-0.03677877253236683,0.21976117316045493,0.21561819461802403,0.2,4.024755205223162,-60.0001403060998,60.0001403060998
6,3,4,0.28505,-3.324436966625986,0.7815138436541214,0.010666666666666668,0.010666666666666668,-0.19939358890953157,0.014051770375153452,7.278246178927228e-5,-0.018868082688944028,0.18534181853437812,-0.018795300227154754,0.19939360219302427,0.02352566247808698,0.2,-0.3001634409121406,-60.0001403060998,60.0001403060998
1,1,2,0.09861666666666669,-9.763222778777191,1.9186539542271615,0.04399999999996977,0.04399999999999384,0.18092259694381896,-0.1801855549186161,0.009641928536710509,-0.08679386934725074,0.0007370420252028609,-0.07715194081054023,0.18117933897330182,0.20000002489399157,0.2,1.05111229814996,-60.0001403060998,60.0001403060998
